L24/1726519/Cargas.dss
! ==========================================================
! CARGAS — mes 01
! BT: UCBT_tab agregada por transformador (kW = ENE/730 h)
! MT: UCMT_tab individual no PAC do consumidor
! fator de escala aplicado: 1
! 0 cargas de MT descartadas por PAC ausente da rede.
! ==========================================================
New Load.BT_456349145_456349144_1 Bus1=node_418019520.1.4 Phases=1 Model=8 zipv=(0.5,0,0.5,1,0,0,0) kv=0.1270 pf=0.92 kW=6.892237 Daily=RES1_25
New Load.BT_456349145_456349144_2 Bus1=node_418019520.2.4 Phases=1 Model=8 zipv=(0.5,0,0.5,1,0,0,0) kv=0.1270 pf=0.92 kW=6.892237 Daily=RES1_25
New Load.BT_456349145_456349144_3 Bus1=node_418019520.3.4 Phases=1 Model=8 zipv=(0.5,0,0.5,1,0,0,0) kv=0.1270 pf=0.92 kW=6.892237 Daily=RES1_25
New Load.BT_326785814_327117359_1 Bus1=node_417593872.1.4 Phases=1 Model=8 zipv=(0.5,0,0.5,1,0,0,0) kv=0.1200 pf=0.92 kW=0.250685 Daily=RES1_25
New Load.BT_326785814_327117359_2 Bus1=node_417593872.2.4 Phases=1 Model=8 zipv=(0.5,0,0.5,1,0,0,0) kv=0.1200 pf=0.92 kW=0.250685 Daily=RES1_25
New Load.BT_326092956_326854813_1 Bus1=node_417593113.1.4 Phases=1 Model=8 zipv=(0.5,0,0.5,1,0,0,0) kv=0.1270 pf=0.92 kW=3.954795 Daily=RES1_25
New Load.BT_326092956_326854813_2 Bus1=node_417593113.2.4 Phases=1 Model=8 zipv=(0.5,0,0.5,1,0,0,0) kv=0.1270 pf=0.92 kW=3.954795 Daily=RES1_25
New Load.BT_326092956_326854813_3 Bus1=node_417593113.3.4 Phases=1 Model=8 zipv=(0.5,0,0.5,1,0,0,0) kv=0.1270 pf=0.92 kW=3.954795 Daily=RES1_25
New Load.BT_326091746_327097648_1 Bus1=node_418530303.1.4 Phases=1 Model=8 zipv=(0.5,0,0.5,1,0,0,0) kv=0.1270 pf=0.92 kW=2.055251 Daily=RES1_25
New Load.BT_326091746_327097648_2 Bus1=node_418530303.2.4 Phases=1 Model=8 zipv=(0.5,0,0.5,1,0,0,0) kv=0.1270 pf=0.92 kW=2.055251 Daily=RES1_25
New Load.BT_326091746_327097648_3 Bus1=node_418530303.3.4 Phases=1 Model=8 zipv=(0.5,0,0.5,1,0,0,0) kv=0.1270 pf=0.92 kW=2.055251 Daily=RES1_25
New Load.BT_326585850_326854842_1 Bus1=node_418017597.1.4 Phases=1 Model=8 zipv=(0.5,0,0.5,1,0,0,0) kv=0.1270 pf=0.92 kW=4.037900 Daily=RES1_25
New Load.BT_326585850_326854842_2 Bus1=node_418017597.2.4 Phases=1 Model=8 zipv=(0.5,0,0.5,1,0,0,0) kv=0.1270 pf=0.92 kW=4.037900 Daily=RES1_25
New Load.BT_326585850_326854842_3 Bus1=node_418017597.3.4 Phases=1 Model=8 zipv=(0.5,0,0.5,1,0,0,0) kv=0.1270 pf=0.92 kW=4.037900 Daily=RES1_25
New Load.BT_326092989_327058674_1 Bus1=node_419704747.1.4 Phases=1 Model=8 zipv=(0.5,0,0.5,1,0,0,0) kv=0.1200 pf=0.92 kW=0.333562 Daily=RES1_25
New Load.BT_326092989_327058674_2 Bus1=node_419704747.2.4 Phases=1 Model=8 zipv=(0.5,0,0.5,1,0,0,0) kv=0.1200 pf=0.92 kW=0.333562 Daily=RES1_25
New Load.BT_326093068_327097645_1 Bus1=node_418500558.1.4 Phases=1 Model=8 zipv=(0.5,0,0.5,1,0,0,0) kv=0.1270 pf=0.92 kW=4.316438 Daily=RES1_25
New Load.BT_326093068_327097645_2 Bus1=node_418500558.2.4 Phases=1 Model=8 zipv=(0.5,0,0.5,1,0,0,0) kv=0.1270 pf=0.92 kW=4.316438 Daily=RES1_25
New Load.BT_326093068_327097645_3 Bus1=node_418500558.3.4 Phases=1 Model=8 zipv=(0.5,0,0.5,1,0,0,0) kv=0.1270 pf=0.92 kW=4.316438 Daily=RES1_25
New Load.BT_326851777_327076536_1 Bus1=node_418838092.1.4 Phases=1 Model=8 zipv=(0.5,0,0.5,1,0,0,0) kv=0.1200 pf=0.92 kW=0.332192 Daily=RES1_25
New Load.BT_326851777_327076536_2 Bus1=node_418838092.2.4 Phases=1 Model=8 zipv=(0.5,0,0.5,1,0,0,0) kv=0.1200 pf=0.92 kW=0.332192 Daily=RES1_25
New Load.BT_326784306_327078076_1 Bus1=node_418019586.1.4 Phases=1 Model=8 zipv=(0.5,0,0.5,1,0,0,0) kv=0.1270 pf=0.92 kW=1.753425 Daily=RES1_25
New Load.BT_326784306_327078076_2 Bus1=node_418019586.2.4 Phases=1 Model=8 zipv=(0.5,0,0.5,1,0,0,0) kv=0.1270 pf=0.92 kW=1.753425 Daily=RES1_25
New Load.BT_326784306_327078076_3 Bus1=node_418019586.3.4 Phases=1 Model=8 zipv=(0.5,0,0.5,1,0,0,0) kv=0.1270 pf=0.92 kW=1.753425 Daily=RES1_25
New Load.BT_326585832_326854839_1 Bus1=node_418021362.1.4 Phases=1 Model=8 zipv=(0.5,0,0.5,1,0,0,0) kv=0.1270 pf=0.92 kW=4.410046 Daily=RES1_25
New Load.BT_326585832_326854839_2 Bus1=node_418021362.2.4 Phases=1 Model=8 zipv=(0.5,0,0.5,1,0,0,0) kv=0.1270 pf=0.92 kW=4.410046 Daily=RES1_25
New Load.BT_326585832_326854839_3 Bus1=node_418021362.3.4 Phases=1 Model=8 zipv=(0.5,0,0.5,1,0,0,0) kv=0.1270 pf=0.92 kW=4.410046 Daily=RES1_25
New Load.BT_326786206_327060365_1 Bus1=node_418018221.1.4 Phases=1 Model=8 zipv=(0.5,0,0.5,1,0,0,0) kv=0.1270 pf=0.92 kW=2.879452 Daily=RES1_25
New Load.BT_326786206_327060365_2 Bus1=node_418018221.2.4 Phases=1 Model=8 zipv=(0.5,0,0.5,1,0,0,0) kv=0.1270 pf=0.92 kW=2.879452 Daily=RES1_25
New Load.BT_326786206_327060365_3 Bus1=node_418018221.3.4 Phases=1 Model=8 zipv=(0.5,0,0.5,1,0,0,0) kv=0.1270 pf=0.92 kW=2.879452 Daily=RES1_25
New Load.BT_326092326_327042812_1 Bus1=node_417593131.1.4 Phases=1 Model=8 zipv=(0.5,0,0.5,1,0,0,0) kv=0.1200 pf=0.92 kW=0.142466 Daily=RES1_25
New Load.BT_326092326_327042812_2 Bus1=node_417593131.2.4 Phases=1 Model=8 zipv=(0.5,0,0.5,1,0,0,0) kv=0.1200 pf=0.92 kW=0.142466 Daily=RES1_25
New Load.BT_1336967106_1336967105_1 Bus1=node_1632377111.1.4 Phases=1 Model=8 zipv=(0.5,0,0.5,1,0,0,0) kv=0.1270 pf=0.92 kW=0.260274 Daily=RES1_25
New Load.BT_1336967106_1336967105_2 Bus1=node_1632377111.2.4 Phases=1 Model=8 zipv=(0.5,0,0.5,1,0,0,0) kv=0.1270 pf=0.92 kW=0.260274 Daily=RES1_25
New Load.BT_1336967106_1336967105_3 Bus1=node_1632377111.3.4 Phases=1 Model=8 zipv=(0.5,0,0.5,1,0,0,0) kv=0.1270 pf=0.92 kW=0.260274 Daily=RES1_25
New Load.BT_326587256_327097638_1 Bus1=node_418019622.1.4 Phases=1 Model=8 zipv=(0.5,0,0.5,1,0,0,0) kv=0.1270 pf=0.92 kW=4.678995 Daily=RES1_25
New Load.BT_326587256_327097638_2 Bus1=node_418019622.2.4 Phases=1 Model=8 zipv=(0.5,0,0.5,1,0,0,0) kv=0.1270 pf=0.92 kW=4.678995 Daily=RES1_25
New Load.BT_326587256_327097638_3 Bus1=node_418019622.3.4 Phases=1 Model=8 zipv=(0.5,0,0.5,1,0,0,0) kv=0.1270 pf=0.92 kW=4.678995 Daily=RES1_25
New Load.BT_326675546_327058959_1 Bus1=node_419932261.1.4 Phases=1 Model=8 zipv=(0.5,0,0.5,1,0,0,0) kv=0.1270 pf=0.92 kW=2.745662 Daily=RES1_25
New Load.BT_326675546_327058959_2 Bus1=node_419932261.2.4 Phases=1 Model=8 zipv=(0.5,0,0.5,1,0,0,0) kv=0.1270 pf=0.92 kW=2.745662 Daily=RES1_25
New Load.BT_326675546_327058959_3 Bus1=node_419932261.3.4 Phases=1 Model=8 zipv=(0.5,0,0.5,1,0,0,0) kv=0.1270 pf=0.92 kW=2.745662 Daily=RES1_25
New Load.BT_326588531_327057428_1 Bus1=node_412327444.1.4 Phases=1 Model=8 zipv=(0.5,0,0.5,1,0,0,0) kv=0.1270 pf=0.92 kW=2.533333 Daily=RES1_25
New Load.BT_326588531_327057428_2 Bus1=node_412327444.2.4 Phases=1 Model=8 zipv=(0.5,0,0.5,1,0,0,0) kv=0.1270 pf=0.92 kW=2.533333 Daily=RES1_25
New Load.BT_326588531_327057428_3 Bus1=node_412327444.3.4 Phases=1 Model=8 zipv=(0.5,0,0.5,1,0,0,0) kv=0.1270 pf=0.92 kW=2.533333 Daily=RES1_25
New Load.BT_326586313_533778554_1 Bus1=node_418017591.1.4 Phases=1 Model=8 zipv=(0.5,0,0.5,1,0,0,0) kv=0.1270 pf=0.92 kW=1.826941 Daily=RES1_25
New Load.BT_326586313_533778554_2 Bus1=node_418017591.2.4 Phases=1 Model=8 zipv=(0.5,0,0.5,1,0,0,0) kv=0.1270 pf=0.92 kW=1.826941 Daily=RES1_25
New Load.BT_326586313_533778554_3 Bus1=node_418017591.3.4 Phases=1 Model=8 zipv=(0.5,0,0.5,1,0,0,0) kv=0.1270 pf=0.92 kW=1.826941 Daily=RES1_25
New Load.BT_326094675_327076049_1 Bus1=node_419936263.1.4 Phases=1 Model=8 zipv=(0.5,0,0.5,1,0,0,0) kv=0.1200 pf=0.92 kW=0.922603 Daily=RES1_25
New Load.BT_326094675_327076049_2 Bus1=node_419936263.2.4 Phases=1 Model=8 zipv=(0.5,0,0.5,1,0,0,0) kv=0.1200 pf=0.92 kW=0.922603 Daily=RES1_25
New Load.BT_326785165_327097644_1 Bus1=node_418500426.1.4 Phases=1 Model=8 zipv=(0.5,0,0.5,1,0,0,0) kv=0.1270 pf=0.92 kW=5.557991 Daily=RES1_25
New Load.BT_326785165_327097644_2 Bus1=node_418500426.2.4 Phases=1 Model=8 zipv=(0.5,0,0.5,1,0,0,0) kv=0.1270 pf=0.92 kW=5.557991 Daily=RES1_25
New Load.BT_326785165_327097644_3 Bus1=node_418500426.3.4 Phases=1 Model=8 zipv=(0.5,0,0.5,1,0,0,0) kv=0.1270 pf=0.92 kW=5.557991 Daily=RES1_25
New Load.BT_326783904_327042627_1 Bus1=node_417595342.1.4 Phases=1 Model=8 zipv=(0.5,0,0.5,1,0,0,0) kv=0.1200 pf=0.92 kW=1.880137 Daily=RES1_25
New Load.BT_326783904_327042627_2 Bus1=node_417595342.2.4 Phases=1 Model=8 zipv=(0.5,0,0.5,1,0,0,0) kv=0.1200 pf=0.92 kW=1.880137 Daily=RES1_25
New Load.BT_326092819_327042748_1 Bus1=node_410911452.1.4 Phases=1 Model=8 zipv=(0.5,0,0.5,1,0,0,0) kv=0.1270 pf=0.92 kW=2.555251 Daily=RES1_25
New Load.BT_326092819_327042748_2 Bus1=node_410911452.2.4 Phases=1 Model=8 zipv=(0.5,0,0.5,1,0,0,0) kv=0.1270 pf=0.92 kW=2.555251 Daily=RES1_25
New Load.BT_326092819_327042748_3 Bus1=node_410911452.3.4 Phases=1 Model=8 zipv=(0.5,0,0.5,1,0,0,0) kv=0.1270 pf=0.92 kW=2.555251 Daily=RES1_25
New Load.BT_326852483_327042734_1 Bus1=node_418500132.1.4 Phases=1 Model=8 zipv=(0.5,0,0.5,1,0,0,0) kv=0.1270 pf=0.92 kW=2.625571 Daily=RES1_25
New Load.BT_326852483_327042734_2 Bus1=node_418500132.2.4 Phases=1 Model=8 zipv=(0.5,0,0.5,1,0,0,0) kv=0.1270 pf=0.92 kW=2.625571 Daily=RES1_25
New Load.BT_326852483_327042734_3 Bus1=node_418500132.3.4 Phases=1 Model=8 zipv=(0.5,0,0.5,1,0,0,0) kv=0.1270 pf=0.92 kW=2.625571 Daily=RES1_25
New Load.BT_326094930_327041260_1 Bus1=node_420035458.1.4 Phases=1 Model=8 zipv=(0.5,0,0.5,1,0,0,0) kv=0.1200 pf=0.92 kW=1.145890 Daily=RES1_25
New Load.BT_326094930_327041260_2 Bus1=node_420035458.2.4 Phases=1 Model=8 zipv=(0.5,0,0.5,1,0,0,0) kv=0.1200 pf=0.92 kW=1.145890 Daily=RES1_25
New Load.BT_326785911_327057442_1 Bus1=node_416056183.1.4 Phases=1 Model=8 zipv=(0.5,0,0.5,1,0,0,0) kv=0.1200 pf=0.92 kW=0.918493 Daily=RES1_25
New Load.BT_326785911_327057442_2 Bus1=node_416056183.2.4 Phases=1 Model=8 zipv=(0.5,0,0.5,1,0,0,0) kv=0.1200 pf=0.92 kW=0.918493 Daily=RES1_25
New Load.BT_326586653_327075256_1 Bus1=node_420914828.1.4 Phases=1 Model=8 zipv=(0.5,0,0.5,1,0,0,0) kv=0.1200 pf=0.92 kW=0.979452 Daily=RES1_25
New Load.BT_326586653_327075256_2 Bus1=node_420914828.2.4 Phases=1 Model=8 zipv=(0.5,0,0.5,1,0,0,0) kv=0.1200 pf=0.92 kW=0.979452 Daily=RES1_25
New Load.BT_326676695_327074767_1 Bus1=node_418021092.1.4 Phases=1 Model=8 zipv=(0.5,0,0.5,1,0,0,0) kv=0.1270 pf=0.92 kW=3.489498 Daily=RES1_25
New Load.BT_326676695_327074767_2 Bus1=node_418021092.2.4 Phases=1 Model=8 zipv=(0.5,0,0.5,1,0,0,0) kv=0.1270 pf=0.92 kW=3.489498 Daily=RES1_25
New Load.BT_326676695_327074767_3 Bus1=node_418021092.3.4 Phases=1 Model=8 zipv=(0.5,0,0.5,1,0,0,0) kv=0.1270 pf=0.92 kW=3.489498 Daily=RES1_25
New Load.BT_326094601_326854837_1 Bus1=node_418018176.1.4 Phases=1 Model=8 zipv=(0.5,0,0.5,1,0,0,0) kv=0.1270 pf=0.92 kW=5.159361 Daily=RES1_25
New Load.BT_326094601_326854837_2 Bus1=node_418018176.2.4 Phases=1 Model=8 zipv=(0.5,0,0.5,1,0,0,0) kv=0.1270 pf=0.92 kW=5.159361 Daily=RES1_25
New Load.BT_326094601_326854837_3 Bus1=node_418018176.3.4 Phases=1 Model=8 zipv=(0.5,0,0.5,1,0,0,0) kv=0.1270 pf=0.92 kW=5.159361 Daily=RES1_25
New Load.BT_326783384_327078130_1 Bus1=node_418528884.1.4 Phases=1 Model=8 zipv=(0.5,0,0.5,1,0,0,0) kv=0.1270 pf=0.92 kW=2.894977 Daily=RES1_25
New Load.BT_326783384_327078130_2 Bus1=node_418528884.2.4 Phases=1 Model=8 zipv=(0.5,0,0.5,1,0,0,0) kv=0.1270 pf=0.92 kW=2.894977 Daily=RES1_25
New Load.BT_326783384_327078130_3 Bus1=node_418528884.3.4 Phases=1 Model=8 zipv=(0.5,0,0.5,1,0,0,0) kv=0.1270 pf=0.92 kW=2.894977 Daily=RES1_25
New Load.BT_326782143_327042836_1 Bus1=node_462577545.1.4 Phases=1 Model=8 zipv=(0.5,0,0.5,1,0,0,0) kv=0.1200 pf=0.92 kW=0.266438 Daily=RES1_25
New Load.BT_326782143_327042836_2 Bus1=node_462577545.2.4 Phases=1 Model=8 zipv=(0.5,0,0.5,1,0,0,0) kv=0.1200 pf=0.92 kW=0.266438 Daily=RES1_25
New Load.BT_326093773_327040173_1 Bus1=node_418571752.1.4 Phases=1 Model=8 zipv=(0.5,0,0.5,1,0,0,0) kv=0.1200 pf=0.92 kW=1.458219 Daily=RES1_25
New Load.BT_326093773_327040173_2 Bus1=node_418571752.2.4 Phases=1 Model=8 zipv=(0.5,0,0.5,1,0,0,0) kv=0.1200 pf=0.92 kW=1.458219 Daily=RES1_25
New Load.BT_326678097_1419382140_1 Bus1=node_418638617.1.4 Phases=1 Model=8 zipv=(0.5,0,0.5,1,0,0,0) kv=0.1200 pf=0.92 kW=0.406849 Daily=RES1_25
New Load.BT_326678097_1419382140_2 Bus1=node_418638617.2.4 Phases=1 Model=8 zipv=(0.5,0,0.5,1,0,0,0) kv=0.1200 pf=0.92 kW=0.406849 Daily=RES1_25
New Load.BT_326676007_327042847_1 Bus1=node_417047376.1.4 Phases=1 Model=8 zipv=(0.5,0,0.5,1,0,0,0) kv=0.1200 pf=0.92 kW=0.208219 Daily=RES1_25
New Load.BT_326676007_327042847_2 Bus1=node_417047376.2.4 Phases=1 Model=8 zipv=(0.5,0,0.5,1,0,0,0) kv=0.1200 pf=0.92 kW=0.208219 Daily=RES1_25
New Load.BT_326584939_327056907_1 Bus1=node_418500417.1.4 Phases=1 Model=8 zipv=(0.5,0,0.5,1,0,0,0) kv=0.1270 pf=0.92 kW=2.747945 Daily=RES1_25
New Load.BT_326584939_327056907_2 Bus1=node_418500417.2.4 Phases=1 Model=8 zipv=(0.5,0,0.5,1,0,0,0) kv=0.1270 pf=0.92 kW=2.747945 Daily=RES1_25
New Load.BT_326584939_327056907_3 Bus1=node_418500417.3.4 Phases=1 Model=8 zipv=(0.5,0,0.5,1,0,0,0) kv=0.1270 pf=0.92 kW=2.747945 Daily=RES1_25
New Load.BT_326784350_327056928_1 Bus1=node_418019589.1.4 Phases=1 Model=8 zipv=(0.5,0,0.5,1,0,0,0) kv=0.1270 pf=0.92 kW=5.981735 Daily=RES1_25
New Load.BT_326784350_327056928_2 Bus1=node_418019589.2.4 Phases=1 Model=8 zipv=(0.5,0,0.5,1,0,0,0) kv=0.1270 pf=0.92 kW=5.981735 Daily=RES1_25
New Load.BT_326784350_327056928_3 Bus1=node_418019589.3.4 Phases=1 Model=8 zipv=(0.5,0,0.5,1,0,0,0) kv=0.1270 pf=0.92 kW=5.981735 Daily=RES1_25
New Load.BT_326782707_326854882_1 Bus1=node_423058024.1.4 Phases=1 Model=8 zipv=(0.5,0,0.5,1,0,0,0) kv=0.1270 pf=0.92 kW=2.456164 Daily=RES1_25
New Load.BT_326782707_326854882_2 Bus1=node_423058024.2.4 Phases=1 Model=8 zipv=(0.5,0,0.5,1,0,0,0) kv=0.1270 pf=0.92 kW=2.456164 Daily=RES1_25
New Load.BT_326782707_326854882_3 Bus1=node_423058024.3.4 Phases=1 Model=8 zipv=(0.5,0,0.5,1,0,0,0) kv=0.1270 pf=0.92 kW=2.456164 Daily=RES1_25
New Load.BT_326677359_327042753_1 Bus1=node_418021392.1.4 Phases=1 Model=8 zipv=(0.5,0,0.5,1,0,0,0) kv=0.1270 pf=0.92 kW=4.021005 Daily=RES1_25
New Load.BT_326677359_327042753_2 Bus1=node_418021392.2.4 Phases=1 Model=8 zipv=(0.5,0,0.5,1,0,0,0) kv=0.1270 pf=0.92 kW=4.021005 Daily=RES1_25
New Load.BT_326677359_327042753_3 Bus1=node_418021392.3.4 Phases=1 Model=8 zipv=(0.5,0,0.5,1,0,0,0) kv=0.1270 pf=0.92 kW=4.021005 Daily=RES1_25
New Load.BT_326587699_2652189468_1 Bus1=node_418651071.1.4 Phases=1 Model=8 zipv=(0.5,0,0.5,1,0,0,0) kv=0.1200 pf=0.92 kW=3.684247 Daily=RES1_25
New Load.BT_326587699_2652189468_2 Bus1=node_418651071.2.4 Phases=1 Model=8 zipv=(0.5,0,0.5,1,0,0,0) kv=0.1200 pf=0.92 kW=3.684247 Daily=RES1_25
New Load.BT_326585284_429125184_1 Bus1=node_419800831.1.4 Phases=1 Model=8 zipv=(0.5,0,0.5,1,0,0,0) kv=0.1200 pf=0.92 kW=0.708219 Daily=RES1_25
New Load.BT_326585284_429125184_2 Bus1=node_419800831.2.4 Phases=1 Model=8 zipv=(0.5,0,0.5,1,0,0,0) kv=0.1200 pf=0.92 kW=0.708219 Daily=RES1_25
New Load.BT_326783190_327056925_1 Bus1=node_418017549.1.4 Phases=1 Model=8 zipv=(0.5,0,0.5,1,0,0,0) kv=0.1270 pf=0.92 kW=3.053881 Daily=RES1_25
New Load.BT_326783190_327056925_2 Bus1=node_418017549.2.4 Phases=1 Model=8 zipv=(0.5,0,0.5,1,0,0,0) kv=0.1270 pf=0.92 kW=3.053881 Daily=RES1_25
New Load.BT_326783190_327056925_3 Bus1=node_418017549.3.4 Phases=1 Model=8 zipv=(0.5,0,0.5,1,0,0,0) kv=0.1270 pf=0.92 kW=3.053881 Daily=RES1_25
New Load.BT_326091756_326854841_1 Bus1=node_418019592.1.4 Phases=1 Model=8 zipv=(0.5,0,0.5,1,0,0,0) kv=0.1270 pf=0.92 kW=3.548858 Daily=RES1_25
New Load.BT_326091756_326854841_2 Bus1=node_418019592.2.4 Phases=1 Model=8 zipv=(0.5,0,0.5,1,0,0,0) kv=0.1270 pf=0.92 kW=3.548858 Daily=RES1_25
New Load.BT_326091756_326854841_3 Bus1=node_418019592.3.4 Phases=1 Model=8 zipv=(0.5,0,0.5,1,0,0,0) kv=0.1270 pf=0.92 kW=3.548858 Daily=RES1_25
New Load.BT_326094375_327042720_1 Bus1=node_417593503.1.4 Phases=1 Model=8 zipv=(0.5,0,0.5,1,0,0,0) kv=0.1270 pf=0.92 kW=4.017352 Daily=RES1_25
New Load.BT_326094375_327042720_2 Bus1=node_417593503.2.4 Phases=1 Model=8 zipv=(0.5,0,0.5,1,0,0,0) kv=0.1270 pf=0.92 kW=4.017352 Daily=RES1_25
New Load.BT_326094375_327042720_3 Bus1=node_417593503.3.4 Phases=1 Model=8 zipv=(0.5,0,0.5,1,0,0,0) kv=0.1270 pf=0.92 kW=4.017352 Daily=RES1_25
New Load.BT_326091673_327097602_1 Bus1=node_418022403.1.4 Phases=1 Model=8 zipv=(0.5,0,0.5,1,0,0,0) kv=0.1270 pf=0.92 kW=2.236530 Daily=RES1_25
New Load.BT_326091673_327097602_2 Bus1=node_418022403.2.4 Phases=1 Model=8 zipv=(0.5,0,0.5,1,0,0,0) kv=0.1270 pf=0.92 kW=2.236530 Daily=RES1_25
New Load.BT_326091673_327097602_3 Bus1=node_418022403.3.4 Phases=1 Model=8 zipv=(0.5,0,0.5,1,0,0,0) kv=0.1270 pf=0.92 kW=2.236530 Daily=RES1_25
New Load.BT_326785121_326854646_1 Bus1=node_417047562.1.4 Phases=1 Model=8 zipv=(0.5,0,0.5,1,0,0,0) kv=0.1200 pf=0.92 kW=0.238356 Daily=RES1_25
New Load.BT_326785121_326854646_2 Bus1=node_417047562.2.4 Phases=1 Model=8 zipv=(0.5,0,0.5,1,0,0,0) kv=0.1200 pf=0.92 kW=0.238356 Daily=RES1_25
New Load.BT_331572185_331763167_1 Bus1=node_410912001.1.4 Phases=1 Model=8 zipv=(0.5,0,0.5,1,0,0,0) kv=0.1270 pf=0.92 kW=4.267580 Daily=RES1_25
New Load.BT_331572185_331763167_2 Bus1=node_410912001.2.4 Phases=1 Model=8 zipv=(0.5,0,0.5,1,0,0,0) kv=0.1270 pf=0.92 kW=4.267580 Daily=RES1_25
New Load.BT_331572185_331763167_3 Bus1=node_410912001.3.4 Phases=1 Model=8 zipv=(0.5,0,0.5,1,0,0,0) kv=0.1270 pf=0.92 kW=4.267580 Daily=RES1_25
New Load.BT_326852320_327056857_1 Bus1=node_423073392.1.4 Phases=1 Model=8 zipv=(0.5,0,0.5,1,0,0,0) kv=0.1200 pf=0.92 kW=0.449315 Daily=RES1_25
New Load.BT_326852320_327056857_2 Bus1=node_423073392.2.4 Phases=1 Model=8 zipv=(0.5,0,0.5,1,0,0,0) kv=0.1200 pf=0.92 kW=0.449315 Daily=RES1_25
New Load.BT_326093717_327041113_1 Bus1=node_420469634.1.4 Phases=1 Model=8 zipv=(0.5,0,0.5,1,0,0,0) kv=0.1200 pf=0.92 kW=4.345205 Daily=RES1_25
New Load.BT_326093717_327041113_2 Bus1=node_420469634.2.4 Phases=1 Model=8 zipv=(0.5,0,0.5,1,0,0,0) kv=0.1200 pf=0.92 kW=4.345205 Daily=RES1_25
New Load.BT_326094016_327075726_1 Bus1=node_418341319.1.4 Phases=1 Model=8 zipv=(0.5,0,0.5,1,0,0,0) kv=0.1270 pf=0.92 kW=2.589498 Daily=RES1_25
New Load.BT_326094016_327075726_2 Bus1=node_418341319.2.4 Phases=1 Model=8 zipv=(0.5,0,0.5,1,0,0,0) kv=0.1270 pf=0.92 kW=2.589498 Daily=RES1_25
New Load.BT_326094016_327075726_3 Bus1=node_418341319.3.4 Phases=1 Model=8 zipv=(0.5,0,0.5,1,0,0,0) kv=0.1270 pf=0.92 kW=2.589498 Daily=RES1_25
New Load.BT_330773054_331721027_1 Bus1=node_412329220.1.4 Phases=1 Model=8 zipv=(0.5,0,0.5,1,0,0,0) kv=0.1270 pf=0.92 kW=0.491324 Daily=RES1_25
New Load.BT_330773054_331721027_2 Bus1=node_412329220.2.4 Phases=1 Model=8 zipv=(0.5,0,0.5,1,0,0,0) kv=0.1270 pf=0.92 kW=0.491324 Daily=RES1_25
New Load.BT_330773054_331721027_3 Bus1=node_412329220.3.4 Phases=1 Model=8 zipv=(0.5,0,0.5,1,0,0,0) kv=0.1270 pf=0.92 kW=0.491324 Daily=RES1_25
New Load.BT_326785005_327097520_1 Bus1=node_418619235.1.4 Phases=1 Model=8 zipv=(0.5,0,0.5,1,0,0,0) kv=0.1270 pf=0.92 kW=3.914155 Daily=RES1_25
New Load.BT_326785005_327097520_2 Bus1=node_418619235.2.4 Phases=1 Model=8 zipv=(0.5,0,0.5,1,0,0,0) kv=0.1270 pf=0.92 kW=3.914155 Daily=RES1_25
New Load.BT_326785005_327097520_3 Bus1=node_418619235.3.4 Phases=1 Model=8 zipv=(0.5,0,0.5,1,0,0,0) kv=0.1270 pf=0.92 kW=3.914155 Daily=RES1_25
New Load.BT_326585629_327056934_1 Bus1=node_418500285.1.4 Phases=1 Model=8 zipv=(0.5,0,0.5,1,0,0,0) kv=0.1270 pf=0.92 kW=2.952055 Daily=RES1_25
New Load.BT_326585629_327056934_2 Bus1=node_418500285.2.4 Phases=1 Model=8 zipv=(0.5,0,0.5,1,0,0,0) kv=0.1270 pf=0.92 kW=2.952055 Daily=RES1_25
New Load.BT_326585629_327056934_3 Bus1=node_418500285.3.4 Phases=1 Model=8 zipv=(0.5,0,0.5,1,0,0,0) kv=0.1270 pf=0.92 kW=2.952055 Daily=RES1_25
New Load.BT_326850901_327060375_1 Bus1=node_418470048.1.4 Phases=1 Model=8 zipv=(0.5,0,0.5,1,0,0,0) kv=0.1270 pf=0.92 kW=4.500913 Daily=RES1_25
New Load.BT_326850901_327060375_2 Bus1=node_418470048.2.4 Phases=1 Model=8 zipv=(0.5,0,0.5,1,0,0,0) kv=0.1270 pf=0.92 kW=4.500913 Daily=RES1_25
New Load.BT_326850901_327060375_3 Bus1=node_418470048.3.4 Phases=1 Model=8 zipv=(0.5,0,0.5,1,0,0,0) kv=0.1270 pf=0.92 kW=4.500913 Daily=RES1_25
New Load.BT_326783450_327076453_1 Bus1=node_418921740.1.4 Phases=1 Model=8 zipv=(0.5,0,0.5,1,0,0,0) kv=0.1200 pf=0.92 kW=9.382877 Daily=RES1_25
New Load.BT_326783450_327076453_2 Bus1=node_418921740.2.4 Phases=1 Model=8 zipv=(0.5,0,0.5,1,0,0,0) kv=0.1200 pf=0.92 kW=9.382877 Daily=RES1_25
New Load.BT_326094390_327097647_1 Bus1=node_418529946.1.4 Phases=1 Model=8 zipv=(0.5,0,0.5,1,0,0,0) kv=0.1270 pf=0.92 kW=2.051598 Daily=RES1_25
New Load.BT_326094390_327097647_2 Bus1=node_418529946.2.4 Phases=1 Model=8 zipv=(0.5,0,0.5,1,0,0,0) kv=0.1270 pf=0.92 kW=2.051598 Daily=RES1_25
New Load.BT_326094390_327097647_3 Bus1=node_418529946.3.4 Phases=1 Model=8 zipv=(0.5,0,0.5,1,0,0,0) kv=0.1270 pf=0.92 kW=2.051598 Daily=RES1_25
New Load.BT_326852561_327057149_1 Bus1=node_418469172.1.4 Phases=1 Model=8 zipv=(0.5,0,0.5,1,0,0,0) kv=0.1200 pf=0.92 kW=1.541096 Daily=RES1_25
New Load.BT_326852561_327057149_2 Bus1=node_418469172.2.4 Phases=1 Model=8 zipv=(0.5,0,0.5,1,0,0,0) kv=0.1200 pf=0.92 kW=1.541096 Daily=RES1_25
New Load.BT_326586972_326854913_1 Bus1=node_418018233.1.4 Phases=1 Model=8 zipv=(0.5,0,0.5,1,0,0,0) kv=0.1200 pf=0.92 kW=4.632877 Daily=RES1_25
New Load.BT_326586972_326854913_2 Bus1=node_418018233.2.4 Phases=1 Model=8 zipv=(0.5,0,0.5,1,0,0,0) kv=0.1200 pf=0.92 kW=4.632877 Daily=RES1_25
New Load.BT_326676954_327075185_1 Bus1=node_419868236.1.4 Phases=1 Model=8 zipv=(0.5,0,0.5,1,0,0,0) kv=0.1270 pf=0.92 kW=3.157078 Daily=RES1_25
New Load.BT_326676954_327075185_2 Bus1=node_419868236.2.4 Phases=1 Model=8 zipv=(0.5,0,0.5,1,0,0,0) kv=0.1270 pf=0.92 kW=3.157078 Daily=RES1_25
New Load.BT_326676954_327075185_3 Bus1=node_419868236.3.4 Phases=1 Model=8 zipv=(0.5,0,0.5,1,0,0,0) kv=0.1270 pf=0.92 kW=3.157078 Daily=RES1_25
New Load.BT_326851567_327042609_1 Bus1=node_418019568.1.4 Phases=1 Model=8 zipv=(0.5,0,0.5,1,0,0,0) kv=0.1200 pf=0.92 kW=0.393836 Daily=RES1_25
New Load.BT_326851567_327042609_2 Bus1=node_418019568.2.4 Phases=1 Model=8 zipv=(0.5,0,0.5,1,0,0,0) kv=0.1200 pf=0.92 kW=0.393836 Daily=RES1_25
New Load.BT_326677991_327097776_1 Bus1=node_417048393.1.4 Phases=1 Model=8 zipv=(0.5,0,0.5,1,0,0,0) kv=0.1200 pf=0.92 kW=0.709589 Daily=RES1_25
New Load.BT_326677991_327097776_2 Bus1=node_417048393.2.4 Phases=1 Model=8 zipv=(0.5,0,0.5,1,0,0,0) kv=0.1200 pf=0.92 kW=0.709589 Daily=RES1_25
New Load.BT_326586695_327042752_1 Bus1=node_418020066.1.4 Phases=1 Model=8 zipv=(0.5,0,0.5,1,0,0,0) kv=0.1270 pf=0.92 kW=2.476256 Daily=RES1_25
New Load.BT_326586695_327042752_2 Bus1=node_418020066.2.4 Phases=1 Model=8 zipv=(0.5,0,0.5,1,0,0,0) kv=0.1270 pf=0.92 kW=2.476256 Daily=RES1_25
New Load.BT_326586695_327042752_3 Bus1=node_418020066.3.4 Phases=1 Model=8 zipv=(0.5,0,0.5,1,0,0,0) kv=0.1270 pf=0.92 kW=2.476256 Daily=RES1_25
New Load.BT_326093114_2597759948_1 Bus1=node_514310515.1.4 Phases=1 Model=8 zipv=(0.5,0,0.5,1,0,0,0) kv=0.1270 pf=0.92 kW=1.072603 Daily=RES1_25
New Load.BT_326093114_2597759948_2 Bus1=node_514310515.2.4 Phases=1 Model=8 zipv=(0.5,0,0.5,1,0,0,0) kv=0.1270 pf=0.92 kW=1.072603 Daily=RES1_25
New Load.BT_326093114_2597759948_3 Bus1=node_514310515.3.4 Phases=1 Model=8 zipv=(0.5,0,0.5,1,0,0,0) kv=0.1270 pf=0.92 kW=1.072603 Daily=RES1_25
New Load.BT_888703542_888703541_1 Bus1=node_1153600446.1.4 Phases=1 Model=8 zipv=(0.5,0,0.5,1,0,0,0) kv=0.1200 pf=0.92 kW=0.192466 Daily=RES1_25
New Load.BT_888703542_888703541_2 Bus1=node_1153600446.2.4 Phases=1 Model=8 zipv=(0.5,0,0.5,1,0,0,0) kv=0.1200 pf=0.92 kW=0.192466 Daily=RES1_25
New Load.BT_326852241_327056983_1 Bus1=node_417593944.1.4 Phases=1 Model=8 zipv=(0.5,0,0.5,1,0,0,0) kv=0.1200 pf=0.92 kW=0.116438 Daily=RES1_25
New Load.BT_326852241_327056983_2 Bus1=node_417593944.2.4 Phases=1 Model=8 zipv=(0.5,0,0.5,1,0,0,0) kv=0.1200 pf=0.92 kW=0.116438 Daily=RES1_25
New Load.BT_326585003_327117264_1 Bus1=node_418500276.1.4 Phases=1 Model=8 zipv=(0.5,0,0.5,1,0,0,0) kv=0.1270 pf=0.92 kW=3.807306 Daily=RES1_25
New Load.BT_326585003_327117264_2 Bus1=node_418500276.2.4 Phases=1 Model=8 zipv=(0.5,0,0.5,1,0,0,0) kv=0.1270 pf=0.92 kW=3.807306 Daily=RES1_25
New Load.BT_326585003_327117264_3 Bus1=node_418500276.3.4 Phases=1 Model=8 zipv=(0.5,0,0.5,1,0,0,0) kv=0.1270 pf=0.92 kW=3.807306 Daily=RES1_25
New Load.BT_326851139_1374844353_1 Bus1=node_418019820.1.4 Phases=1 Model=8 zipv=(0.5,0,0.5,1,0,0,0) kv=0.1270 pf=0.92 kW=6.673516 Daily=RES1_25
New Load.BT_326851139_1374844353_2 Bus1=node_418019820.2.4 Phases=1 Model=8 zipv=(0.5,0,0.5,1,0,0,0) kv=0.1270 pf=0.92 kW=6.673516 Daily=RES1_25
New Load.BT_326851139_1374844353_3 Bus1=node_418019820.3.4 Phases=1 Model=8 zipv=(0.5,0,0.5,1,0,0,0) kv=0.1270 pf=0.92 kW=6.673516 Daily=RES1_25
New Load.BT_326850706_327056877_1 Bus1=node_423071724.1.4 Phases=1 Model=8 zipv=(0.5,0,0.5,1,0,0,0) kv=0.1200 pf=0.92 kW=0.994521 Daily=RES1_25
New Load.BT_326850706_327056877_2 Bus1=node_423071724.2.4 Phases=1 Model=8 zipv=(0.5,0,0.5,1,0,0,0) kv=0.1200 pf=0.92 kW=0.994521 Daily=RES1_25
New Load.BT_326675744_327042733_1 Bus1=node_418501506.1.4 Phases=1 Model=8 zipv=(0.5,0,0.5,1,0,0,0) kv=0.1270 pf=0.92 kW=3.705936 Daily=RES1_25
New Load.BT_326675744_327042733_2 Bus1=node_418501506.2.4 Phases=1 Model=8 zipv=(0.5,0,0.5,1,0,0,0) kv=0.1270 pf=0.92 kW=3.705936 Daily=RES1_25
New Load.BT_326675744_327042733_3 Bus1=node_418501506.3.4 Phases=1 Model=8 zipv=(0.5,0,0.5,1,0,0,0) kv=0.1270 pf=0.92 kW=3.705936 Daily=RES1_25
New Load.BT_326785603_327078129_1 Bus1=node_418019652.1.4 Phases=1 Model=8 zipv=(0.5,0,0.5,1,0,0,0) kv=0.1270 pf=0.92 kW=4.149315 Daily=RES1_25
New Load.BT_326785603_327078129_2 Bus1=node_418019652.2.4 Phases=1 Model=8 zipv=(0.5,0,0.5,1,0,0,0) kv=0.1270 pf=0.92 kW=4.149315 Daily=RES1_25
New Load.BT_326785603_327078129_3 Bus1=node_418019652.3.4 Phases=1 Model=8 zipv=(0.5,0,0.5,1,0,0,0) kv=0.1270 pf=0.92 kW=4.149315 Daily=RES1_25
New Load.BT_326853440_327078066_1 Bus1=node_418022148.1.4 Phases=1 Model=8 zipv=(0.5,0,0.5,1,0,0,0) kv=0.1200 pf=0.92 kW=4.111644 Daily=RES1_25
New Load.BT_326853440_327078066_2 Bus1=node_418022148.2.4 Phases=1 Model=8 zipv=(0.5,0,0.5,1,0,0,0) kv=0.1200 pf=0.92 kW=4.111644 Daily=RES1_25
New Load.BT_326783274_327060379_1 Bus1=node_418500123.1.4 Phases=1 Model=8 zipv=(0.5,0,0.5,1,0,0,0) kv=0.1200 pf=0.92 kW=2.971918 Daily=RES1_25
New Load.BT_326783274_327060379_2 Bus1=node_418500123.2.4 Phases=1 Model=8 zipv=(0.5,0,0.5,1,0,0,0) kv=0.1200 pf=0.92 kW=2.971918 Daily=RES1_25
New Load.BT_326851417_327074768_1 Bus1=node_418020636.1.4 Phases=1 Model=8 zipv=(0.5,0,0.5,1,0,0,0) kv=0.1270 pf=0.92 kW=4.574429 Daily=RES1_25
New Load.BT_326851417_327074768_2 Bus1=node_418020636.2.4 Phases=1 Model=8 zipv=(0.5,0,0.5,1,0,0,0) kv=0.1270 pf=0.92 kW=4.574429 Daily=RES1_25
New Load.BT_326851417_327074768_3 Bus1=node_418020636.3.4 Phases=1 Model=8 zipv=(0.5,0,0.5,1,0,0,0) kv=0.1270 pf=0.92 kW=4.574429 Daily=RES1_25
New Load.BT_326783713_327095807_1 Bus1=node_419060441.1.4 Phases=1 Model=8 zipv=(0.5,0,0.5,1,0,0,0) kv=0.1200 pf=0.92 kW=3.135616 Daily=RES1_25
New Load.BT_326783713_327095807_2 Bus1=node_419060441.2.4 Phases=1 Model=8 zipv=(0.5,0,0.5,1,0,0,0) kv=0.1200 pf=0.92 kW=3.135616 Daily=RES1_25
New Load.BT_331242150_331724087_1 Bus1=node_410911461.1.4 Phases=1 Model=8 zipv=(0.5,0,0.5,1,0,0,0) kv=0.1270 pf=0.92 kW=2.890868 Daily=RES1_25
New Load.BT_331242150_331724087_2 Bus1=node_410911461.2.4 Phases=1 Model=8 zipv=(0.5,0,0.5,1,0,0,0) kv=0.1270 pf=0.92 kW=2.890868 Daily=RES1_25
New Load.BT_331242150_331724087_3 Bus1=node_410911461.3.4 Phases=1 Model=8 zipv=(0.5,0,0.5,1,0,0,0) kv=0.1270 pf=0.92 kW=2.890868 Daily=RES1_25
New Load.BT_326851855_327117266_1 Bus1=node_418023555.1.4 Phases=1 Model=8 zipv=(0.5,0,0.5,1,0,0,0) kv=0.1270 pf=0.92 kW=1.821918 Daily=RES1_25
New Load.BT_326851855_327117266_2 Bus1=node_418023555.2.4 Phases=1 Model=8 zipv=(0.5,0,0.5,1,0,0,0) kv=0.1270 pf=0.92 kW=1.821918 Daily=RES1_25
New Load.BT_326851855_327117266_3 Bus1=node_418023555.3.4 Phases=1 Model=8 zipv=(0.5,0,0.5,1,0,0,0) kv=0.1270 pf=0.92 kW=1.821918 Daily=RES1_25
New Load.BT_326094444_327060452_1 Bus1=node_418621164.1.4 Phases=1 Model=8 zipv=(0.5,0,0.5,1,0,0,0) kv=0.1270 pf=0.92 kW=1.734247 Daily=RES1_25
New Load.BT_326094444_327060452_2 Bus1=node_418621164.2.4 Phases=1 Model=8 zipv=(0.5,0,0.5,1,0,0,0) kv=0.1270 pf=0.92 kW=1.734247 Daily=RES1_25
New Load.BT_326094444_327060452_3 Bus1=node_418621164.3.4 Phases=1 Model=8 zipv=(0.5,0,0.5,1,0,0,0) kv=0.1270 pf=0.92 kW=1.734247 Daily=RES1_25
New Load.BT_326676344_327041145_1 Bus1=node_418955290.1.4 Phases=1 Model=8 zipv=(0.5,0,0.5,1,0,0,0) kv=0.1200 pf=0.92 kW=3.384247 Daily=RES1_25
New Load.BT_326676344_327041145_2 Bus1=node_418955290.2.4 Phases=1 Model=8 zipv=(0.5,0,0.5,1,0,0,0) kv=0.1200 pf=0.92 kW=3.384247 Daily=RES1_25
New Load.BT_331239988_867143242_1 Bus1=node_410912427.1.4 Phases=1 Model=8 zipv=(0.5,0,0.5,1,0,0,0) kv=0.1270 pf=0.92 kW=8.253881 Daily=RES1_25
New Load.BT_331239988_867143242_2 Bus1=node_410912427.2.4 Phases=1 Model=8 zipv=(0.5,0,0.5,1,0,0,0) kv=0.1270 pf=0.92 kW=8.253881 Daily=RES1_25
New Load.BT_331239988_867143242_3 Bus1=node_410912427.3.4 Phases=1 Model=8 zipv=(0.5,0,0.5,1,0,0,0) kv=0.1270 pf=0.92 kW=8.253881 Daily=RES1_25
New Load.BT_326584827_327057349_1 Bus1=node_418501491.1.4 Phases=1 Model=8 zipv=(0.5,0,0.5,1,0,0,0) kv=0.1270 pf=0.92 kW=7.012329 Daily=RES1_25
New Load.BT_326584827_327057349_2 Bus1=node_418501491.2.4 Phases=1 Model=8 zipv=(0.5,0,0.5,1,0,0,0) kv=0.1270 pf=0.92 kW=7.012329 Daily=RES1_25
...

! --- cargas de media tensao (UCMT_tab) ---
New Load.MT_node_123035667_3 Bus1=node_123035667.1.2.3 Phases=3 Conn=wye Model=8 zipv=(0.5,0,0.5,1,0,0,0) kv=13.8000 pf=0.92 kW=245.7041 Daily=MT1_1
New Load.MT_node_116002956_4 Bus1=node_116002956.1.2.3 Phases=3 Conn=wye Model=8 zipv=(0.5,0,0.5,1,0,0,0) kv=13.8000 pf=0.92 kW=58.1863 Daily=MT1_1
New Load.MT_node_115829351_5 Bus1=node_115829351.1.2.3 Phases=3 Conn=wye Model=8 zipv=(0.5,0,0.5,1,0,0,0) kv=13.8000 pf=0.92 kW=55.0973 Daily=MT1_1
New Load.MT_node_114973715_6 Bus1=node_114973715.1.2.3 Phases=3 Conn=wye Model=8 zipv=(0.5,0,0.5,1,0,0,0) kv=13.8000 pf=0.92 kW=41.5616 Daily=MT1_1
New Load.MT_node_112018594_7 Bus1=node_112018594.1.2.3 Phases=3 Conn=wye Model=8 zipv=(0.5,0,0.5,1,0,0,0) kv=13.8000 pf=0.92 kW=30.0479 Daily=MT1_1
New Load.MT_node_109336925_8 Bus1=node_109336925.1.2.3 Phases=3 Conn=wye Model=8 zipv=(0.5,0,0.5,1,0,0,0) kv=13.8000 pf=0.92 kW=70.3836 Daily=MT1_1
New Load.MT_node_425292717_9 Bus1=node_425292717.1.2.3 Phases=3 Conn=wye Model=8 zipv=(0.5,0,0.5,1,0,0,0) kv=13.8000 pf=0.92 kW=18.7945 Daily=MT1_1
New Load.MT_node_429174449_10 Bus1=node_429174449.1.2.3 Phases=3 Conn=wye Model=8 zipv=(0.5,0,0.5,1,0,0,0) kv=13.8000 pf=0.92 kW=16.6247 Daily=MT5_1
New Load.MT_node_123034772_12 Bus1=node_123034772.1.2.3 Phases=3 Conn=wye Model=8 zipv=(0.5,0,0.5,1,0,0,0) kv=13.8000 pf=0.92 kW=10.7397 Daily=MT1_1
New Load.MT_node_1332918607_13 Bus1=node_1332918607.1.2.3 Phases=3 Conn=wye Model=8 zipv=(0.5,0,0.5,1,0,0,0) kv=13.8000 pf=0.92 kW=0.4493 Daily=MT5_1
New Load.MT_node_123035737_14 Bus1=node_123035737.1.2.3 Phases=3 Conn=wye Model=8 zipv=(0.5,0,0.5,1,0,0,0) kv=13.8000 pf=0.92 kW=8.0548 Daily=MT1_1
New Load.MT_node_108049082_15 Bus1=node_108049082.1.2.3 Phases=3 Conn=wye Model=8 zipv=(0.5,0,0.5,1,0,0,0) kv=13.8000 pf=0.92 kW=10.1658 Daily=MT5_1
New Load.MT_node_108541316_16 Bus1=node_108541316.1.2.3 Phases=3 Conn=wye Model=8 zipv=(0.5,0,0.5,1,0,0,0) kv=13.8000 pf=0.92 kW=3.3699 Daily=MT1_1
New Load.MT_node_108541261_17 Bus1=node_108541261.1.2.3 Phases=3 Conn=wye Model=8 zipv=(0.5,0,0.5,1,0,0,0) kv=13.8000 pf=0.92 kW=1.7411 Daily=MT1_1
New Load.MT_node_435069616_18 Bus1=node_435069616.1.2.3 Phases=3 Conn=wye Model=8 zipv=(0.5,0,0.5,1,0,0,0) kv=13.8000 pf=0.92 kW=6.1370 Daily=MT5_1
New Load.MT_node_107586940_19 Bus1=node_107586940.1.2.3 Phases=3 Conn=wye Model=8 zipv=(0.5,0,0.5,1,0,0,0) kv=13.8000 pf=0.92 kW=4.6055 Daily=MT1_1
New Load.MT_node_108047537_20 Bus1=node_108047537.1.2.3 Phases=3 Conn=wye Model=8 zipv=(0.5,0,0.5,1,0,0,0) kv=13.8000 pf=0.92 kW=16.6247 Daily=MT1_1
New Load.MT_node_115145096_21 Bus1=node_115145096.1.2.3 Phases=3 Conn=wye Model=8 zipv=(0.5,0,0.5,1,0,0,0) kv=13.8000 pf=0.92 kW=3.9315 Daily=MT1_1
New Load.MT_node_2223579268_22 Bus1=node_2223579268.1.2.3 Phases=3 Conn=wye Model=8 zipv=(0.5,0,0.5,1,0,0,0) kv=13.8000 pf=0.92 kW=1.7260 Daily=MT1_1
New Load.MT_node_109461977_23 Bus1=node_109461977.1.2.3 Phases=3 Conn=wye Model=8 zipv=(0.5,0,0.5,1,0,0,0) kv=13.8000 pf=0.92 kW=0.7863 Daily=MT5_1
New Load.MT_node_112019069_25 Bus1=node_112019069.1.2.3 Phases=3 Conn=wye Model=8 zipv=(0.5,0,0.5,1,0,0,0) kv=13.8000 pf=0.92 kW=0.3932 Daily=MT4_1
New Load.MT_node_115484684_27 Bus1=node_115484684.1.2.3 Phases=3 Conn=wye Model=8 zipv=(0.5,0,0.5,1,0,0,0) kv=13.8000 pf=0.92 kW=0.3370 Daily=MT1_1
New Load.MT_node_431048310_28 Bus1=node_431048310.1.2.3 Phases=3 Conn=wye Model=8 zipv=(0.5,0,0.5,1,0,0,0) kv=13.8000 pf=0.92 kW=13.1986 Daily=MT5_1
New Load.MT_node_175964078_30 Bus1=node_175964078.1.2.3 Phases=3 Conn=wye Model=8 zipv=(0.5,0,0.5,1,0,0,0) kv=13.8000 pf=0.92 kW=9.7726 Daily=MT1_1
New Load.MT_node_122391078_31 Bus1=node_122391078.1.2.3 Phases=3 Conn=wye Model=8 zipv=(0.5,0,0.5,1,0,0,0) kv=13.8000 pf=0.92 kW=4.4932 Daily=MT5_1
New Load.MT_node_122389893_38 Bus1=node_122389893.1.2.3 Phases=3 Conn=wye Model=8 zipv=(0.5,0,0.5,1,0,0,0) kv=13.8000 pf=0.92 kW=6.1219 Daily=MT1_1
New Load.MT_node_122568757_39 Bus1=node_122568757.1.2.3 Phases=3 Conn=wye Model=8 zipv=(0.5,0,0.5,1,0,0,0) kv=13.8000 pf=0.92 kW=0.5055 Daily=MT1_1
